@<TRIPOS>MOLECULE
C2
    8     7     1     0     0
SMALL
bcc


@<TRIPOS>ATOM
      1 C           -5.6450     1.6160     0.0140 cD         1 C2       -0.094100
      2 H           -5.6550     2.3560     0.8210 hL         1 C2        0.031700
      3 H1          -6.5280     0.9790     0.1250 hL         1 C2        0.031700
      4 H2          -5.7270     2.1460    -0.9400 hL         1 C2        0.031700
      5 C1          -4.3800     0.7740     0.0590 cD         1 C2       -0.094100
      6 H3          -4.3970     0.0610    -0.7390 hL         1 C2        0.031700
      7 H4          -4.3270     0.2600     0.9960 hL         1 C2        0.031700
      8 H5          -3.5250     1.4090    -0.0480 hL         1 C2        0.031700
@<TRIPOS>BOND
     1     4     1 1   
     2     1     5 1   
     3     1     3 1   
     4     1     2 1   
     5     5     6 1   
     6     5     7 1   
     7     5     8 1   
@<TRIPOS>SUBSTRUCTURE
     1 C2          1 TEMP              0 ****  ****    0 ROOT
