@<TRIPOS>MOLECULE
BOH
   15    14     1     0     0
SMALL
bcc


@<TRIPOS>ATOM
      1 C          -11.3110    -3.3180    -0.7290 c3         1 BOH      -0.093100
      2 H          -11.6900    -4.2620    -0.3260 hc         1 BOH       0.034033
      3 H1         -10.3830    -3.5280    -1.2700 hc         1 BOH       0.034033
      4 H2         -12.0460    -2.9330    -1.4430 hc         1 BOH       0.034033
      5 C1         -11.0720    -2.3230     0.3960 c3         1 BOH      -0.076400
      6 H3         -10.3580    -2.7520     1.1090 hc         1 BOH       0.040200
      7 H4         -12.0110    -2.1590     0.9370 hc         1 BOH       0.040200
      8 C2         -10.5400    -0.9950    -0.1350 c3         1 BOH      -0.120400
      9 H5          -9.6040    -1.1550    -0.6850 hc         1 BOH       0.047200
     10 H6         -11.2440    -0.5660    -0.8590 hc         1 BOH       0.047200
     11 C3         -10.3020     0.0040     0.9900 c3         1 BOH       0.126400
     12 H7         -11.2320     0.2130     1.5290 h1         1 BOH       0.044200
     13 H8          -9.5660    -0.3710     1.7080 h1         1 BOH       0.044200
     14 O           -9.8240     1.2300     0.4520 oh         1 BOH      -0.598800
     15 H9          -8.9900     1.0410    -0.0110 ho         1 BOH       0.396000
@<TRIPOS>BOND
     1     1     2 1   
     2     1     3 1   
     3     1     4 1   
     4     1     5 1   
     5     5     6 1   
     6     5     7 1   
     7     5     8 1   
     8     8     9 1   
     9     8    10 1   
    10     8    11 1   
    11    11    12 1   
    12    11    13 1   
    13    11    14 1   
    14    14    15 1   
@<TRIPOS>SUBSTRUCTURE
     1 BOH         1 TEMP              0 ****  ****    0 ROOT
