@<TRIPOS>MOLECULE
MOH
    6     5     1     0     0
SMALL
bcc


@<TRIPOS>ATOM
      1 C          -11.0480    -3.1740    -0.6460 c3         1 MOH       0.116700
      2 H          -11.6080    -3.9040    -0.0560 h1         1 MOH       0.028700
      3 H1         -10.1900    -3.6650    -1.1110 h1         1 MOH       0.028700
      4 H2         -11.6880    -2.7510    -1.4250 h1         1 MOH       0.028700
      5 O          -10.5840    -2.1380     0.1990 oh         1 MOH      -0.598800
      6 H3         -11.3670    -1.7210     0.5970 ho         1 MOH       0.396000
@<TRIPOS>BOND
     1     1     2 1   
     2     1     3 1   
     3     1     4 1   
     4     1     5 1   
     5     5     6 1   
@<TRIPOS>SUBSTRUCTURE
     1 MOH         1 TEMP              0 ****  ****    0 ROOT
