@<TRIPOS>MOLECULE
C3
   11    10     1     0     0
SMALL
bcc


@<TRIPOS>ATOM
      1 C           -5.6450     1.6160     0.0140 cD         1 C3       -0.093100
      2 H           -5.6550     2.3560     0.8210 hL         1 C3        0.032367
      3 H1          -6.5280     0.9790     0.1250 hL         1 C3        0.032367
      4 H2          -5.7270     2.1460    -0.9400 hL         1 C3        0.032367
      5 C1          -4.3800     0.7740     0.0590 cD         1 C3       -0.081400
      6 H3          -4.3960     0.0560    -0.7690 hL         1 C3        0.036700
      7 H4          -4.3660     0.1960     0.9900 hL         1 C3        0.036700
      8 C2          -3.1250     1.6420    -0.0260 cD         1 C3       -0.093100
      9 H5          -3.1420     2.2050    -0.9360 hL         1 C3        0.032367
     10 H6          -2.2570     1.0170    -0.0090 hL         1 C3        0.032367
     11 H7          -3.0980     2.3120     0.8080 hL         1 C3        0.032367
@<TRIPOS>BOND
     1     4     1 1   
     2     6     5 1   
     3     8     5 1   
     4     1     5 1   
     5     1     3 1   
     6     1     2 1   
     7     5     7 1   
     8     8     9 1   
     9     8    10 1   
    10     8    11 1   
@<TRIPOS>SUBSTRUCTURE
     1 C3          1 TEMP              0 ****  ****    0 ROOT
