@<TRIPOS>MOLECULE
C1
    5     4     1     0     0
SMALL
bcc


@<TRIPOS>ATOM
      1 C           -5.6450     1.6160     0.0140 c3         1 C1       -0.108800
      2 H           -4.5750     1.6160     0.0140 hc         1 C1        0.026700
      3 H1          -6.0020     2.4880    -0.4930 hc         1 C1        0.026700
      4 H2          -6.0020     1.6190     1.0230 hc         1 C1        0.026700
      5 H3          -6.0020     0.7410    -0.4880 hc         1 C1        0.026700
@<TRIPOS>BOND
     1     1     2 1   
     2     1     3 1   
     3     1     4 1   
     4     1     5 1   
@<TRIPOS>SUBSTRUCTURE
     1 C1          1 TEMP              0 ****  ****    0 ROOT
