@<TRIPOS>MOLECULE
C10
   32    31     1     0     0
SMALL
bcc


@<TRIPOS>ATOM
      1 C           -5.7340     1.6270     0.0040 c3         1 C10      -0.092100
      2 H           -5.7600     2.2880     0.8760 hc         1 C10       0.032700
      3 H1          -6.6280     0.9950     0.0300 hc         1 C10       0.032700
      4 H2          -5.7810     2.2450    -0.8980 hc         1 C10       0.032700
      5 C1          -4.4810     0.7660     0.0100 c3         1 C10      -0.080400
      6 H3          -4.5010     0.0940    -0.8560 hc         1 C10       0.038700
      7 H4          -4.4810     0.1380     0.9080 hc         1 C10       0.038700
      8 C2          -3.2140     1.6210    -0.0260 c3         1 C10      -0.079400
      9 H5          -3.2040     2.2990     0.8370 hc         1 C10       0.039700
     10 H6          -3.2180     2.2460    -0.9270 hc         1 C10       0.039700
     11 C3          -1.9560     0.7520    -0.0090 c3         1 C10      -0.079400
     12 H7          -1.9640     0.0760    -0.8720 hc         1 C10       0.039700
     13 H8          -1.9550     0.1260     0.8920 hc         1 C10       0.039700
     14 C4          -0.6880     1.6070    -0.0390 c3         1 C10      -0.079400
     15 H9          -0.6880     2.2940     0.8170 hc         1 C10       0.039700
     16 H10         -0.6810     2.2220    -0.9470 hc         1 C10       0.039700
     17 C5           0.5700     0.7380     0.0030 c3         1 C10      -0.079400
     18 H11          0.5730     0.0530    -0.8530 hc         1 C10       0.039700
     19 H12          0.5590     0.1220     0.9100 hc         1 C10       0.039700
     20 C6           1.8380     1.5930    -0.0190 c3         1 C10      -0.079400
     21 H13          1.8250     2.2920     0.8260 hc         1 C10       0.039700
     22 H14          1.8590     2.1950    -0.9360 hc         1 C10       0.039700
     23 C7           3.0950     0.7260     0.0550 c3         1 C10      -0.079400
     24 H15          3.1110     0.0260    -0.7890 hc         1 C10       0.039700
     25 H16          3.0720     0.1240     0.9720 hc         1 C10       0.039700
     26 C8           4.3630     1.5800     0.0360 c3         1 C10      -0.080400
     27 H17          4.3480     2.2880     0.8720 hc         1 C10       0.038700
     28 H18          4.4010     2.1680    -0.8880 hc         1 C10       0.038700
     29 C9           5.6140     0.7210     0.1340 c3         1 C10      -0.092100
     30 H19          5.6230     0.1450     1.0640 hc         1 C10       0.032700
     31 H20          6.5080     1.3520     0.1160 hc         1 C10       0.032700
     32 H21          5.6760     0.0210    -0.7050 hc         1 C10       0.032700
@<TRIPOS>BOND
     1    16    14 1   
     2    22    20 1   
     3    10     8 1   
     4     4     1 1   
     5    28    26 1   
     6    12    11 1   
     7     6     5 1   
     8    18    17 1   
     9    24    23 1   
    10    32    29 1   
    11    14    11 1   
    12    14    17 1   
    13    14    15 1   
    14     8    11 1   
    15     8     5 1   
    16     8     9 1   
    17    20    17 1   
    18    20    23 1   
    19    20    21 1   
    20    11    13 1   
    21    17    19 1   
    22     1     5 1   
    23     1     3 1   
    24     1     2 1   
    25     5     7 1   
    26    26    23 1   
    27    26    29 1   
    28    26    27 1   
    29    23    25 1   
    30    31    29 1   
    31    29    30 1   
@<TRIPOS>SUBSTRUCTURE
     1 C10         1 TEMP              0 ****  ****    0 ROOT
