@<TRIPOS>MOLECULE
POH
   12    11     1     0     0
SMALL
bcc


@<TRIPOS>ATOM
      1 C          -11.3700    -3.2540    -0.6960 c3         1 POH      -0.094100
      2 H          -11.7610    -4.1950    -0.2960 hc         1 POH       0.034367
      3 H1         -10.4910    -3.4850    -1.3070 hc         1 POH       0.034367
      4 H2         -12.1350    -2.8170    -1.3460 hc         1 POH       0.034367
      5 C1         -11.0090    -2.3090     0.4350 c3         1 POH      -0.085400
      6 H3         -10.2560    -2.7740     1.0830 hc         1 POH       0.054700
      7 H4         -11.8870    -2.1360     1.0710 hc         1 POH       0.054700
      8 C2         -10.4880    -0.9780    -0.0840 c3         1 POH       0.131400
      9 H5          -9.6150    -1.1230    -0.7280 h1         1 POH       0.019700
     10 H6         -11.2630    -0.4490    -0.6480 h1         1 POH       0.019700
     11 O          -10.1040    -0.1710     1.0220 oh         1 POH      -0.602800
     12 H7          -9.7450     0.6560     0.6610 ho         1 POH       0.398000
@<TRIPOS>BOND
     1     1     2 1   
     2     1     3 1   
     3     1     4 1   
     4     1     5 1   
     5     5     6 1   
     6     5     7 1   
     7     5     8 1   
     8     8     9 1   
     9     8    10 1   
    10     8    11 1   
    11    11    12 1   
@<TRIPOS>SUBSTRUCTURE
     1 POH         1 TEMP              0 ****  ****    0 ROOT
