@<TRIPOS>MOLECULE
iBO
   15    14     1     0     0
SMALL
bcc


@<TRIPOS>ATOM
      1 C          -11.5960    -3.1820    -1.5140 c3         1 iBO      -0.092100
      2 H          -12.3760    -3.8610    -1.8740 hc         1 iBO       0.037200
      3 H1         -10.6980    -3.7720    -1.3060 hc         1 iBO       0.037200
      4 H2         -11.3550    -2.4880    -2.3270 hc         1 iBO       0.037200
      5 C1         -12.0700    -2.4150    -0.2790 c3         1 iBO      -0.107700
      6 H3         -12.9040    -1.7680    -0.5790 hc         1 iBO       0.052700
      7 C2         -10.9440    -1.5210     0.2430 c3         1 iBO      -0.092100
      8 H4         -10.0690    -2.1060     0.5430 hc         1 iBO       0.037200
      9 H5         -10.6270    -0.8100    -0.5280 hc         1 iBO       0.037200
     10 H6         -11.2800    -0.9430     1.1100 hc         1 iBO       0.037200
     11 C3         -12.5840    -3.3570     0.8170 c3         1 iBO       0.130400
     12 H7         -13.4580    -3.9190     0.4710 h1         1 iBO       0.043200
     13 H8         -12.8900    -2.7820     1.6970 h1         1 iBO       0.043200
     14 O          -11.5900    -4.2840     1.2320 oh         1 iBO      -0.597800
     15 H9         -11.4830    -4.9370     0.5190 ho         1 iBO       0.397000
@<TRIPOS>BOND
     1     1     2 1   
     2     1     3 1   
     3     1     4 1   
     4     1     5 1   
     5     5     6 1   
     6     5     7 1   
     7     5    11 1   
     8     7     8 1   
     9     7     9 1   
    10     7    10 1   
    11    11    12 1   
    12    11    13 1   
    13    11    14 1   
    14    14    15 1   
@<TRIPOS>SUBSTRUCTURE
     1 iBO         1 TEMP              0 ****  ****    0 ROOT
