@<TRIPOS>MOLECULE
C13
   41    40     1     0     0
SMALL
bcc


@<TRIPOS>ATOM
      1 C           -5.7020     1.6130    -0.0110 cD         1 C13      -0.092100
      2 H           -5.7340     2.2800     0.8570 hL         1 C13       0.032700
      3 H1          -6.5940     0.9800     0.0140 hL         1 C13       0.032700
      4 H2          -5.7450     2.2260    -0.9170 hL         1 C13       0.032700
      5 C1          -4.4470     0.7550     0.0080 cD         1 C13      -0.080400
      6 H3          -4.4610     0.0770    -0.8530 hL         1 C13       0.038700
      7 H4          -4.4510     0.1330     0.9110 hL         1 C13       0.038700
      8 C2          -3.1820     1.6130    -0.0270 cD         1 C13      -0.079400
      9 H5          -3.1780     2.2960     0.8320 hL         1 C13       0.039700
     10 H6          -3.1830     2.2320    -0.9320 hL         1 C13       0.039700
     11 C3          -1.9210     0.7480     0.0020 cD         1 C13      -0.079400
     12 H7          -1.9230     0.0650    -0.8570 hL         1 C13       0.039700
     13 H8          -1.9200     0.1290     0.9070 hL         1 C13       0.039700
     14 C4          -0.6580     1.6090    -0.0320 cD         1 C13      -0.079400
     15 H9          -0.6620     2.3000     0.8200 hL         1 C13       0.039700
     16 H10         -0.6550     2.2200    -0.9430 hL         1 C13       0.039700
     17 C5           0.6080     0.7510     0.0130 cD         1 C13      -0.079400
     18 H11          0.6170     0.0620    -0.8400 hL         1 C13       0.039700
     19 H12          0.6050     0.1400     0.9240 hL         1 C13       0.039700
     20 C6           1.8650     1.6210    -0.0170 cD         1 C13      -0.079400
     21 H13          1.8460     2.3210     0.8280 hL         1 C13       0.039700
     22 H14          1.8730     2.2230    -0.9340 hL         1 C13       0.039700
     23 C7           3.1370     0.7750     0.0510 cD         1 C13      -0.079400
     24 H15          3.1630     0.0790    -0.7960 hL         1 C13       0.039700
     25 H16          3.1290     0.1710     0.9670 hL         1 C13       0.039700
     26 C8           4.3870     1.6570     0.0290 cD         1 C13      -0.079400
     27 H17          4.3510     2.3620     0.8690 hL         1 C13       0.039700
     28 H18          4.3990     2.2530    -0.8920 hL         1 C13       0.039700
     29 C9           5.6660     0.8240     0.1170 cD         1 C13      -0.079400
     30 H19          5.7100     0.1250    -0.7270 hL         1 C13       0.039700
     31 H20          5.6510     0.2230     1.0340 hL         1 C13       0.039700
     32 C10          6.9080     1.7170     0.1100 cD         1 C13      -0.079400
     33 H21          6.8590     2.4200     0.9510 hL         1 C13       0.039700
     34 H22          6.9250     2.3150    -0.8100 hL         1 C13       0.039700
     35 C11          8.1910     0.8930     0.2080 cD         1 C13      -0.080400
     36 H23          8.2530     0.1980    -0.6370 hL         1 C13       0.038700
     37 H24          8.1780     0.2900     1.1240 hL         1 C13       0.038700
     38 C12          9.4240     1.7830     0.2150 cD         1 C13      -0.092100
     39 H25          9.4830     2.3780    -0.7020 hL         1 C13       0.032700
     40 H26         10.3310     1.1750     0.2860 hL         1 C13       0.032700
     41 H27          9.4070     2.4690     1.0690 hL         1 C13       0.032700
@<TRIPOS>BOND
     1    16    14 1   
     2    22    20 1   
     3    10     8 1   
     4     4     1 1   
     5    28    26 1   
     6    12    11 1   
     7     6     5 1   
     8    18    17 1   
     9    34    32 1   
    10    24    23 1   
    11    30    29 1   
    12    39    38 1   
    13    36    35 1   
    14    14    11 1   
    15    14    17 1   
    16    14    15 1   
    17     8    11 1   
    18     8     5 1   
    19     8     9 1   
    20    20    17 1   
    21    20    23 1   
    22    20    21 1   
    23     1     5 1   
    24     1     3 1   
    25     1     2 1   
    26    11    13 1   
    27     5     7 1   
    28    17    19 1   
    29    26    23 1   
    30    26    29 1   
    31    26    27 1   
    32    23    25 1   
    33    32    29 1   
    34    32    35 1   
    35    32    33 1   
    36    29    31 1   
    37    35    38 1   
    38    35    37 1   
    39    38    40 1   
    40    38    41 1   
@<TRIPOS>SUBSTRUCTURE
     1 C13         1 TEMP              0 ****  ****    0 ROOT
