@<TRIPOS>MOLECULE
C6
   20    19     1     0     0
SMALL
bcc


@<TRIPOS>ATOM
      1 C           -5.6270     1.6790     0.0170 c3         1 C6       -0.092100
      2 H           -5.6270     2.3550     0.8780 hc         1 C6        0.032700
      3 H1          -6.5410     1.0790     0.0550 hc         1 C6        0.032700
      4 H2          -5.6550     2.2840    -0.8950 hc         1 C6        0.032700
      5 C1          -4.4040     0.7760     0.0340 c3         1 C6       -0.080400
      6 H3          -4.4490     0.0940    -0.8230 hc         1 C6        0.038700
      7 H4          -4.4240     0.1600     0.9400 hc         1 C6        0.038700
      8 C2          -3.1080     1.5860    -0.0140 c3         1 C6       -0.079400
      9 H5          -3.0680     2.2650     0.8470 hc         1 C6        0.038700
     10 H6          -3.0970     2.2090    -0.9170 hc         1 C6        0.038700
     11 C3          -1.8810     0.6740    -0.0060 c3         1 C6       -0.079400
     12 H7          -1.9180    -0.0000    -0.8710 hc         1 C6        0.038700
     13 H8          -1.8950     0.0460     0.8930 hc         1 C6        0.038700
     14 C4          -0.5850     1.4840    -0.0440 c3         1 C6       -0.080400
     15 H9          -0.5380     2.1520     0.8240 hc         1 C6        0.038700
     16 H10         -0.5670     2.1150    -0.9410 hc         1 C6        0.038700
     17 C5           0.6370     0.5810    -0.0450 c3         1 C6       -0.092100
     18 H11          0.6640    -0.0440     0.8530 hc         1 C6        0.032700
     19 H12          1.5520     1.1810    -0.0690 hc         1 C6        0.032700
     20 H13          0.6390    -0.0760    -0.9210 hc         1 C6        0.032700
@<TRIPOS>BOND
     1    16    14 1   
     2    20    17 1   
     3    10     8 1   
     4     4     1 1   
     5    12    11 1   
     6     6     5 1   
     7    19    17 1   
     8    17    14 1   
     9    17    18 1   
    10    14    11 1   
    11    14    15 1   
    12     8    11 1   
    13     8     5 1   
    14     8     9 1   
    15    11    13 1   
    16     1     5 1   
    17     1     3 1   
    18     1     2 1   
    19     5     7 1   
@<TRIPOS>SUBSTRUCTURE
     1 C6          1 TEMP              0 ****  ****    0 ROOT
