@<TRIPOS>MOLECULE
C15
   47    46     1     0     0
SMALL
bcc


@<TRIPOS>ATOM
      1 C           -5.7050     1.6070    -0.0170 cD         1 C15      -0.092100
      2 H           -5.7400     2.2760     0.8490 hL         1 C15       0.032700
      3 H1          -6.5970     0.9720     0.0090 hL         1 C15       0.032700
      4 H2          -5.7470     2.2160    -0.9250 hL         1 C15       0.032700
      5 C1          -4.4490     0.7500     0.0070 cD         1 C15      -0.080400
      6 H3          -4.4610     0.0700    -0.8520 hL         1 C15       0.038700
      7 H4          -4.4530     0.1310     0.9120 hL         1 C15       0.038700
      8 C2          -3.1850     1.6090    -0.0280 cD         1 C15      -0.079400
      9 H5          -3.1830     2.2940     0.8280 hL         1 C15       0.039700
     10 H6          -3.1860     2.2260    -0.9350 hL         1 C15       0.039700
     11 C3          -1.9230     0.7450     0.0030 cD         1 C15      -0.079400
     12 H7          -1.9250     0.0600    -0.8540 hL         1 C15       0.039700
     13 H8          -1.9230     0.1290     0.9100 hL         1 C15       0.039700
     14 C4          -0.6600     1.6070    -0.0320 cD         1 C15      -0.079400
     15 H9          -0.6640     2.2980     0.8200 hL         1 C15       0.039700
     16 H10         -0.6570     2.2170    -0.9430 hL         1 C15       0.039700
     17 C5           0.6050     0.7470     0.0130 cD         1 C15      -0.079400
     18 H11          0.6120     0.0570    -0.8390 hL         1 C15       0.039700
     19 H12          0.6010     0.1370     0.9240 hL         1 C15       0.039700
     20 C6           1.8630     1.6150    -0.0180 cD         1 C15      -0.079400
     21 H13          1.8460     2.3140     0.8280 hL         1 C15       0.039700
     22 H14          1.8710     2.2180    -0.9340 hL         1 C15       0.039700
     23 C7           3.1340     0.7670     0.0480 cD         1 C15      -0.079400
     24 H15          3.1580     0.0720    -0.8000 hL         1 C15       0.039700
     25 H16          3.1260     0.1620     0.9630 hL         1 C15       0.039700
     26 C8           4.3830     1.6480     0.0260 cD         1 C15      -0.079400
     27 H17          4.3460     2.3550     0.8640 hL         1 C15       0.039700
     28 H18          4.3980     2.2420    -0.8960 hL         1 C15       0.039700
     29 C9           5.6640     0.8170     0.1190 cD         1 C15      -0.079400
     30 H19          5.7130     0.1170    -0.7250 hL         1 C15       0.039700
     31 H20          5.6470     0.2170     1.0370 hL         1 C15       0.039700
     32 C10          6.9010     1.7160     0.1140 cD         1 C15      -0.079400
     33 H21          6.8360     2.4310     0.9440 hL         1 C15       0.039700
     34 H22          6.9260     2.3000    -0.8130 hL         1 C15       0.039700
     35 C11          8.1910     0.9040     0.2430 cD         1 C15      -0.079400
     36 H23          8.2690     0.1990    -0.5940 hL         1 C15       0.039700
     37 H24          8.1610     0.3110     1.1650 hL         1 C15       0.039700
     38 C12          9.4160     1.8200     0.2610 cD         1 C15      -0.079400
     39 C13         10.7100     1.0220     0.4200 cD         1 C15      -0.080400
     40 H25          9.3250     2.5370     1.0860 hL         1 C15       0.039700
     41 H26          9.4540     2.4000    -0.6690 hL         1 C15       0.039700
     42 C14         11.9240     1.9370     0.4560 cD         1 C15      -0.092100
     43 H27         10.8160     0.3140    -0.4100 hL         1 C15       0.038700
     44 H28         10.6750     0.4360     1.3450 hL         1 C15       0.038700
     45 H29         12.0070     2.5160    -0.4700 hL         1 C15       0.032700
     46 H30         12.8400     1.3490     0.5720 hL         1 C15       0.032700
     47 H31         11.8620     2.6380     1.2940 hL         1 C15       0.032700
@<TRIPOS>BOND
     1    16    14 1   
     2    22    20 1   
     3    10     8 1   
     4     4     1 1   
     5    28    26 1   
     6    12    11 1   
     7     6     5 1   
     8    18    17 1   
     9    34    32 1   
    10    24    23 1   
    11    30    29 1   
    12    36    35 1   
    13    14    11 1   
    14    14    17 1   
    15    14    15 1   
    16     8    11 1   
    17     8     5 1   
    18     8     9 1   
    19    20    17 1   
    20    20    23 1   
    21    20    21 1   
    22     1     5 1   
    23     1     3 1   
    24     1     2 1   
    25    11    13 1   
    26     5     7 1   
    27    17    19 1   
    28    26    23 1   
    29    26    29 1   
    30    26    27 1   
    31    23    25 1   
    32    32    29 1   
    33    32    35 1   
    34    32    33 1   
    35    29    31 1   
    36    35    38 1   
    37    35    37 1   
    38    38    39 1   
    39    38    40 1   
    40    38    41 1   
    41    39    42 1   
    42    39    43 1   
    43    39    44 1   
    44    42    45 1   
    45    42    46 1   
    46    42    47 1   
@<TRIPOS>SUBSTRUCTURE
     1 C15         1 TEMP              0 ****  ****    0 ROOT
