@<TRIPOS>MOLECULE
iPO
   12    11     1     0     0
SMALL
bcc


@<TRIPOS>ATOM
      1 C          -11.5330    -3.3160    -1.0940 c3         1 iPO      -0.111600
      2 H          -12.2440    -4.1490    -1.1070 hc         1 iPO       0.043367
      3 H1         -10.5330    -3.7590    -1.0160 hc         1 iPO       0.043367
      4 H2         -11.6070    -2.7800    -2.0450 hc         1 iPO       0.043367
      5 C1         -11.8140    -2.3950     0.0840 c3         1 iPO       0.139100
      6 H3         -12.8340    -2.0020     0.0170 h1         1 iPO       0.028700
      7 C2         -10.8270    -1.2400     0.1380 c3         1 iPO      -0.111600
      8 H4          -9.8000    -1.6050     0.2540 hc         1 iPO       0.043367
      9 H5         -10.8810    -0.6270    -0.7660 hc         1 iPO       0.043367
     10 H6         -11.0320    -0.6030     1.0050 hc         1 iPO       0.043367
     11 O          -11.7040    -3.1340     1.2960 oh         1 iPO      -0.601800
     12 H7         -12.3530    -3.8560     1.2590 ho         1 iPO       0.397000
@<TRIPOS>BOND
     1     1     2 1   
     2     1     3 1   
     3     1     4 1   
     4     1     5 1   
     5     5     6 1   
     6     5     7 1   
     7     5    11 1   
     8     7     8 1   
     9     7     9 1   
    10     7    10 1   
    11    11    12 1   
@<TRIPOS>SUBSTRUCTURE
     1 iPO         1 TEMP              0 ****  ****    0 ROOT
