@<TRIPOS>MOLECULE
C5
   17    16     1     0     0
SMALL
bcc


@<TRIPOS>ATOM
      1 C           -5.6450     1.6160     0.0140 c3         1 C5       -0.092100
      2 H           -5.6550     2.3560     0.8210 hc         1 C5        0.032367
      3 H1          -6.5280     0.9790     0.1250 hc         1 C5        0.032367
      4 H2          -5.7270     2.1470    -0.9400 hc         1 C5        0.032367
      5 C1          -4.3800     0.7740     0.0590 c3         1 C5       -0.080400
      6 H3          -4.3960     0.0560    -0.7690 hc         1 C5        0.037700
      7 H4          -4.3660     0.1960     0.9900 hc         1 C5        0.037700
      8 C2          -3.1250     1.6430    -0.0260 c3         1 C5       -0.079400
      9 H5          -3.1000     2.3320     0.8260 hc         1 C5        0.039700
     10 H6          -3.1590     2.2550    -0.9350 hc         1 C5        0.039700
     11 C3          -1.8570     0.7890    -0.0350 c3         1 C5       -0.080400
     12 H7          -1.8550     0.1390    -0.9180 hc         1 C5        0.037700
     13 H8          -1.8380     0.1380     0.8470 hc         1 C5        0.037700
     14 C4          -0.6050     1.6510    -0.0450 c3         1 C5       -0.092100
     15 H9          -0.5850     2.3070    -0.9200 hc         1 C5        0.032367
     16 H10          0.2890     1.0200    -0.0720 hc         1 C5        0.032367
     17 H11         -0.5520     2.2740     0.8540 hc         1 C5        0.032367
@<TRIPOS>BOND
     1     4     1 1   
     2    10     8 1   
     3    15    14 1   
     4    12    11 1   
     5     6     5 1   
     6    16    14 1   
     7    14    11 1   
     8    14    17 1   
     9    11     8 1   
    10    11    13 1   
    11     8     5 1   
    12     8     9 1   
    13     1     5 1   
    14     1     3 1   
    15     1     2 1   
    16     5     7 1   
@<TRIPOS>SUBSTRUCTURE
     1 C5          1 TEMP              0 ****  ****    0 ROOT
