@<TRIPOS>MOLECULE
EOH
    9     8     1     0     0
SMALL
bcc


@<TRIPOS>ATOM
      1 C          -11.2520    -3.2130    -0.7320 c3         1 EOH      -0.136100
      2 H          -11.7290    -4.1480    -0.4240 hc         1 EOH       0.042367
      3 H1         -10.2200    -3.4250    -1.0330 hc         1 EOH       0.042367
      4 H2         -11.7690    -2.8290    -1.6170 hc         1 EOH       0.042367
      5 C1         -11.2820    -2.1970     0.3900 c3         1 EOH       0.126400
      6 H3         -10.7570    -2.5810     1.2690 h1         1 EOH       0.043200
      7 H4         -12.3110    -1.9610     0.6790 h1         1 EOH       0.043200
      8 O          -10.6380    -1.0000    -0.0220 oh         1 EOH      -0.599800
      9 H5         -11.1180    -0.6610    -0.7980 ho         1 EOH       0.396000
@<TRIPOS>BOND
     1     1     2 1   
     2     1     3 1   
     3     1     4 1   
     4     1     5 1   
     5     5     6 1   
     6     5     7 1   
     7     5     8 1   
     8     8     9 1   
@<TRIPOS>SUBSTRUCTURE
     1 EOH         1 TEMP              0 ****  ****    0 ROOT
