@<TRIPOS>MOLECULE
C8
   26    25     1     0     0
SMALL
bcc


@<TRIPOS>ATOM
      1 C           -5.6740     1.6290     0.0130 c3         1 C8       -0.092100
      2 H           -5.6950     2.2900     0.8860 hc         1 C8        0.032700
      3 H1          -6.5690     0.9990     0.0430 hc         1 C8        0.032700
      4 H2          -5.7240     2.2480    -0.8880 hc         1 C8        0.032700
      5 C1          -4.4220     0.7670     0.0140 c3         1 C8       -0.080400
      6 H3          -4.4470     0.0960    -0.8530 hc         1 C8        0.038700
      7 H4          -4.4210     0.1370     0.9110 hc         1 C8        0.038700
      8 C2          -3.1540     1.6190    -0.0240 c3         1 C8       -0.079400
      9 H5          -3.1380     2.2930     0.8410 hc         1 C8        0.039700
     10 H6          -3.1590     2.2470    -0.9230 hc         1 C8        0.039700
     11 C3          -1.8990     0.7450    -0.0160 c3         1 C8       -0.079400
     12 H7          -1.9100     0.0760    -0.8850 hc         1 C8        0.039700
     13 H8          -1.9000     0.1110     0.8790 hc         1 C8        0.039700
     14 C4          -0.6260     1.5930    -0.0390 c3         1 C8       -0.079400
     15 H9          -0.6240     2.2750     0.8200 hc         1 C8        0.039700
     16 H10         -0.6140     2.2130    -0.9440 hc         1 C8        0.039700
     17 C5           0.6260     0.7160     0.0010 c3         1 C8       -0.079400
     18 H11          0.6290     0.0380    -0.8620 hc         1 C8        0.039700
     19 H12          0.6060     0.0900     0.9020 hc         1 C8        0.039700
     20 C6           1.9000     1.5600    -0.0080 c3         1 C8       -0.080400
     21 C7           3.1440     0.6900     0.0720 c3         1 C8       -0.092100
     22 H13          1.8930     2.2550     0.8400 hc         1 C8        0.038700
     23 H14          1.9400     2.1640    -0.9220 hc         1 C8        0.038700
     24 H15          3.1510     0.1000     0.9940 hc         1 C8        0.032700
     25 H16          4.0440     1.3140     0.0620 hc         1 C8        0.032700
     26 H17          3.1970     0.0020    -0.7780 hc         1 C8        0.032700
@<TRIPOS>BOND
     1    18    17 1   
     2    16    14 1   
     3    10     8 1   
     4    12    11 1   
     5     4     1 1   
     6     6     5 1   
     7    20    17 1   
     8    17    14 1   
     9    17    19 1   
    10    14    11 1   
    11    14    15 1   
    12    11     8 1   
    13    11    13 1   
    14     8     5 1   
    15     8     9 1   
    16     1     5 1   
    17     1     3 1   
    18     1     2 1   
    19     5     7 1   
    20    20    21 1   
    21    20    22 1   
    22    20    23 1   
    23    21    24 1   
    24    21    25 1   
    25    21    26 1   
@<TRIPOS>SUBSTRUCTURE
     1 C8          1 TEMP              0 ****  ****    0 ROOT
