@<TRIPOS>MOLECULE
C12
   38    37     1     0     0
SMALL
bcc


@<TRIPOS>ATOM
      1 C           -5.7300     1.6180    -0.0040 c3         1 C12      -0.092100
      2 H           -5.7610     2.2820     0.8660 hc         1 C12       0.032700
      3 H1          -6.6220     0.9840     0.0200 hc         1 C12       0.032700
      4 H2          -5.7750     2.2340    -0.9080 hc         1 C12       0.032700
      5 C1          -4.4740     0.7610     0.0090 c3         1 C12      -0.080400
      6 H3          -4.4890     0.0870    -0.8550 hc         1 C12       0.038700
      7 H4          -4.4750     0.1360     0.9090 hc         1 C12       0.038700
      8 C2          -3.2100     1.6210    -0.0260 c3         1 C12      -0.079400
      9 H5          -3.2050     2.3010     0.8340 hc         1 C12       0.039700
     10 H6          -3.2130     2.2420    -0.9300 hc         1 C12       0.039700
     11 C3          -1.9480     0.7570    -0.0030 c3         1 C12      -0.079400
     12 H7          -1.9520     0.0760    -0.8630 hc         1 C12       0.039700
     13 H8          -1.9460     0.1350     0.9010 hc         1 C12       0.039700
     14 C4          -0.6850     1.6180    -0.0350 c3         1 C12      -0.079400
     15 H9          -0.6880     2.3070     0.8180 hc         1 C12       0.039700
     16 H10         -0.6810     2.2310    -0.9450 hc         1 C12       0.039700
     17 C5           0.5790     0.7570     0.0090 c3         1 C12      -0.079400
     18 H11          0.5850     0.0680    -0.8450 hc         1 C12       0.039700
     19 H12          0.5730     0.1440     0.9180 hc         1 C12       0.039700
     20 C6           1.8410     1.6200    -0.0200 c3         1 C12      -0.079400
     21 H13          1.8270     2.3200     0.8250 hc         1 C12       0.039700
     22 H14          1.8540     2.2210    -0.9370 hc         1 C12       0.039700
     23 C7           3.1040     0.7610     0.0500 c3         1 C12      -0.079400
     24 H15          3.1210     0.0620    -0.7950 hc         1 C12       0.039700
     25 H16          3.0890     0.1600     0.9670 hc         1 C12       0.039700
     26 C8           4.3670     1.6250     0.0250 c3         1 C12      -0.079400
     27 H17          4.3430     2.3350     0.8610 hc         1 C12       0.039700
     28 H18          4.3900     2.2150    -0.9000 hc         1 C12       0.039700
     29 C9           5.6300     0.7670     0.1180 c3         1 C12      -0.079400
     30 H19          5.6550     0.0570    -0.7170 hc         1 C12       0.039700
     31 H20          5.6050     0.1780     1.0430 hc         1 C12       0.039700
     32 C10          6.8910     1.6300     0.0960 c3         1 C12      -0.080400
     33 H21          6.8680     2.3460     0.9260 hc         1 C12       0.038700
     34 H22          6.9280     2.2120    -0.8330 hc         1 C12       0.038700
     35 C11          8.1480     0.7820     0.2040 c3         1 C12      -0.092100
     36 H23          8.1570     0.2120     1.1390 hc         1 C12       0.032700
     37 H24          9.0380     1.4190     0.1860 hc         1 C12       0.032700
     38 H25          8.2180     0.0760    -0.6300 hc         1 C12       0.032700
@<TRIPOS>BOND
     1    16    14 1   
     2    22    20 1   
     3    10     8 1   
     4     4     1 1   
     5    28    26 1   
     6    12    11 1   
     7     6     5 1   
     8    18    17 1   
     9    34    32 1   
    10    24    23 1   
    11    30    29 1   
    12    38    35 1   
    13    14    11 1   
    14    14    17 1   
    15    14    15 1   
    16     8    11 1   
    17     8     5 1   
    18     8     9 1   
    19    20    17 1   
    20    20    23 1   
    21    20    21 1   
    22     1     5 1   
    23     1     3 1   
    24     1     2 1   
    25    11    13 1   
    26    17    19 1   
    27     5     7 1   
    28    26    23 1   
    29    26    29 1   
    30    26    27 1   
    31    23    25 1   
    32    32    29 1   
    33    32    35 1   
    34    32    33 1   
    35    29    31 1   
    36    37    35 1   
    37    35    36 1   
@<TRIPOS>SUBSTRUCTURE
     1 C12         1 TEMP              0 ****  ****    0 ROOT
