@<TRIPOS>MOLECULE
C15
   47    46     1     0     0
SMALL
bcc


@<TRIPOS>ATOM
      1 C           -5.7050     1.6070    -0.0170 c3         1 C15      -0.092100
      2 H           -5.7400     2.2760     0.8490 hc         1 C15       0.032700
      3 H1          -6.5970     0.9720     0.0090 hc         1 C15       0.032700
      4 H2          -5.7470     2.2160    -0.9250 hc         1 C15       0.032700
      5 C1          -4.4490     0.7500     0.0070 c3         1 C15      -0.080400
      6 H3          -4.4610     0.0700    -0.8520 hc         1 C15       0.038700
      7 H4          -4.4530     0.1310     0.9120 hc         1 C15       0.038700
      8 C2          -3.1850     1.6090    -0.0280 c3         1 C15      -0.079400
      9 H5          -3.1830     2.2940     0.8280 hc         1 C15       0.039700
     10 H6          -3.1860     2.2260    -0.9350 hc         1 C15       0.039700
     11 C3          -1.9230     0.7450     0.0030 c3         1 C15      -0.079400
     12 H7          -1.9250     0.0600    -0.8540 hc         1 C15       0.039700
     13 H8          -1.9230     0.1290     0.9100 hc         1 C15       0.039700
     14 C4          -0.6600     1.6070    -0.0320 c3         1 C15      -0.079400
     15 H9          -0.6640     2.2980     0.8200 hc         1 C15       0.039700
     16 H10         -0.6570     2.2170    -0.9430 hc         1 C15       0.039700
     17 C5           0.6050     0.7470     0.0130 c3         1 C15      -0.079400
     18 H11          0.6120     0.0570    -0.8390 hc         1 C15       0.039700
     19 H12          0.6010     0.1370     0.9240 hc         1 C15       0.039700
     20 C6           1.8630     1.6150    -0.0180 c3         1 C15      -0.079400
     21 H13          1.8460     2.3140     0.8280 hc         1 C15       0.039700
     22 H14          1.8710     2.2180    -0.9340 hc         1 C15       0.039700
     23 C7           3.1340     0.7670     0.0480 c3         1 C15      -0.079400
     24 H15          3.1580     0.0720    -0.8000 hc         1 C15       0.039700
     25 H16          3.1260     0.1620     0.9630 hc         1 C15       0.039700
     26 C8           4.3830     1.6480     0.0260 c3         1 C15      -0.079400
     27 H17          4.3460     2.3550     0.8640 hc         1 C15       0.039700
     28 H18          4.3980     2.2420    -0.8960 hc         1 C15       0.039700
     29 C9           5.6640     0.8170     0.1190 c3         1 C15      -0.079400
     30 H19          5.7130     0.1170    -0.7250 hc         1 C15       0.039700
     31 H20          5.6470     0.2170     1.0370 hc         1 C15       0.039700
     32 C10          6.9010     1.7160     0.1140 c3         1 C15      -0.079400
     33 H21          6.8360     2.4310     0.9440 hc         1 C15       0.039700
     34 H22          6.9260     2.3000    -0.8130 hc         1 C15       0.039700
     35 C11          8.1910     0.9040     0.2430 c3         1 C15      -0.079400
     36 H23          8.2690     0.1990    -0.5940 hc         1 C15       0.039700
     37 H24          8.1610     0.3110     1.1650 hc         1 C15       0.039700
     38 C12          9.4160     1.8200     0.2610 c3         1 C15      -0.079400
     39 H25          9.3250     2.5370     1.0860 hc         1 C15       0.039700
     40 H26          9.4540     2.4000    -0.6690 hc         1 C15       0.039700
     41 C13         10.7100     1.0220     0.4200 c3         1 C15      -0.080400
     42 H27         10.8160     0.3140    -0.4100 hc         1 C15       0.038700
     43 H28         10.6750     0.4360     1.3450 hc         1 C15       0.038700
     44 C14         11.9240     1.9370     0.4560 c3         1 C15      -0.092100
     45 H29         12.0070     2.5160    -0.4700 hc         1 C15       0.032700
     46 H30         12.8400     1.3490     0.5720 hc         1 C15       0.032700
     47 H31         11.8620     2.6380     1.2940 hc         1 C15       0.032700
@<TRIPOS>BOND
     1    16    14 1   
     2    10     8 1   
     3    22    20 1   
     4     4     1 1   
     5    28    26 1   
     6    12    11 1   
     7     6     5 1   
     8    18    17 1   
     9    34    32 1   
    10    24    23 1   
    11    30    29 1   
    12    40    38 1   
    13    36    35 1   
    14    45    44 1   
    15    42    41 1   
    16    14    11 1   
    17    14    17 1   
    18    14    15 1   
    19     8    11 1   
    20     8     5 1   
    21     8     9 1   
    22    20    17 1   
    23    20    23 1   
    24    20    21 1   
    25     1     5 1   
    26     1     3 1   
    27     1     2 1   
    28    11    13 1   
    29     5     7 1   
    30    17    19 1   
    31    26    23 1   
    32    26    29 1   
    33    26    27 1   
    34    23    25 1   
    35    32    29 1   
    36    32    35 1   
    37    32    33 1   
    38    29    31 1   
    39    35    38 1   
    40    35    37 1   
    41    38    41 1   
    42    38    39 1   
    43    41    44 1   
    44    41    43 1   
    45    44    46 1   
    46    44    47 1   
@<TRIPOS>SUBSTRUCTURE
     1 C15         1 TEMP              0 ****  ****    0 ROOT
