@<TRIPOS>MOLECULE
C7
   23    22     1     0     0
SMALL
bcc


@<TRIPOS>ATOM
      1 C           -5.6470     1.6150     0.0200 cD         1 C7       -0.092100
      2 H           -5.6690     2.2830     0.8870 hL         1 C7        0.032700
      3 H1          -6.5420     0.9850     0.0530 hL         1 C7        0.032700
      4 H2          -5.6960     2.2270    -0.8860 hL         1 C7        0.032700
      5 C1          -4.3950     0.7520     0.0280 cD         1 C7       -0.080400
      6 H3          -4.4170     0.0780    -0.8350 hL         1 C7        0.038700
      7 H4          -4.3940     0.1280     0.9290 hL         1 C7        0.038700
      8 C2          -3.1290     1.6080    -0.0120 cD         1 C7       -0.079400
      9 H5          -3.1130     2.2790     0.8550 hL         1 C7        0.039700
     10 H6          -3.1400     2.2390    -0.9090 hL         1 C7        0.039700
     11 C3          -1.8680     0.7420    -0.0130 cD         1 C7       -0.079400
     12 H7          -1.8780     0.0790    -0.8860 hL         1 C7        0.038700
     13 H8          -1.8590     0.1030     0.8790 hL         1 C7        0.038700
     14 C4          -0.6060     1.6050    -0.0360 cD         1 C7       -0.079400
     15 H9          -0.5940     2.2610     0.8430 hL         1 C7        0.039700
     16 H10         -0.6200     2.2530    -0.9220 hL         1 C7        0.039700
     17 C5           0.6590     0.7480    -0.0520 cD         1 C7       -0.080400
     18 H11          0.6610     0.1030    -0.9390 hL         1 C7        0.038700
     19 H12          0.6770     0.0920     0.8260 hL         1 C7        0.038700
     20 C6           1.9130     1.6080    -0.0580 cD         1 C7       -0.092100
     21 H13          1.9380     2.2590    -0.9370 hL         1 C7        0.032700
     22 H14          2.8060     0.9770    -0.0760 hL         1 C7        0.032700
     23 H15          1.9600     2.2380     0.8370 hL         1 C7        0.032700
@<TRIPOS>BOND
     1    18    17 1   
     2    21    20 1   
     3    16    14 1   
     4    10     8 1   
     5    12    11 1   
     6     4     1 1   
     7     6     5 1   
     8    22    20 1   
     9    20    17 1   
    10    20    23 1   
    11    17    14 1   
    12    17    19 1   
    13    14    11 1   
    14    14    15 1   
    15    11     8 1   
    16    11    13 1   
    17     8     5 1   
    18     8     9 1   
    19     1     5 1   
    20     1     3 1   
    21     1     2 1   
    22     5     7 1   
@<TRIPOS>SUBSTRUCTURE
     1 C7          1 TEMP              0 ****  ****    0 ROOT
